9
Dimethyl Ether; experimental geometry taken from cccbdb.nist.gov
O   0.0000  0.0000  0.5952
CO  0.0000  1.1669  -0.1963
CO  0.0000  -1.1669     -0.1963
HT7 0.0000  2.0489  0.4542
HT7 0.0000  -2.0489     0.4542
HT7 0.8950  1.1787  -0.8287
HT7 -0.8950     1.1787  -0.8287
HT7 -0.8950     -1.1787     -0.8287
HT7 0.8950  -1.1787     -0.8287
